Circuit: * D:\SAE\projekti\LoadSet\LoadSet\Simulation\LoadSet_1.asc

Direct Newton iteration failed to find .op point.  (Use ".option noopiter" to skip.)
Starting Gmin stepping
Gmin = 10
Gmin = 1.07374
Gmin = 0.115292
Gmin = 0.0123794
Gmin = 0.00132923
Gmin = 0.000142725
Gmin = 1.5325e-005
vernier = 0.5
vernier = 0.666667
Gmin = 5.73799e-006
vernier = 0.888888
vernier = 1
Gmin = 8.09366e-007
Gmin = 8.6905e-008
Gmin = 9.33136e-009
Gmin = 1.00195e-009
Gmin = 1.07583e-010
Gmin = 1.15517e-011
Gmin = 1.24035e-012
Gmin = 1.33182e-013
Gmin = 0
Gmin stepping succeeded in finding the operating point.

Changing Tseed to 1e-008
Changing Tseed to 1e-010
Heightened Def Con from 1.00073e-010 to 3.10007e-009
Heightened Def Con from 0.286665 to 0.286665
Heightened Def Con from 0.286665 to 0.286665
Heightened Def Con from 0.584658 to 0.584658
Heightened Def Con from 0.682542 to 0.682542
Heightened Def Con from 0.77717 to 0.77717
Heightened Def Con from 0.77717 to 0.77717
Heightened Def Con from 0.917729 to 0.917729
Heightened Def Con from 1.21128 to 1.21128
Heightened Def Con from 1.3994 to 1.3994
Heightened Def Con from 1.3994 to 1.3994
Heightened Def Con from 1.44109 to 1.44109
Heightened Def Con from 1.44122 to 1.44122
Heightened Def Con from 1.45649 to 1.45649
Heightened Def Con from 1.45649 to 1.45649
Heightened Def Con from 1.45649 to 1.45649
Heightened Def Con from 1.45649 to 1.45649
Heightened Def Con from 1.45662 to 1.45662
Heightened Def Con from 1.60238 to 1.60238
Heightened Def Con from 1.7569 to 1.7569
Heightened Def Con from 1.7569 to 1.7569
Heightened Def Con from 1.75804 to 1.75804
Heightened Def Con from 1.80628 to 1.80628
Heightened Def Con from 1.80629 to 1.80629
Heightened Def Con from 1.9116 to 1.9116
Heightened Def Con from 2.02525 to 2.02525
Heightened Def Con from 2.07074 to 2.07074
Heightened Def Con from 2.38749 to 2.38749
Heightened Def Con from 2.52145 to 2.52145
Heightened Def Con from 2.75403 to 2.75403
Heightened Def Con from 2.7916 to 2.7916

Date: Wed Jan 25 22:19:24 2023
Total elapsed time: 0.646 seconds.

tnom = 27
temp = 27
method = modified trap
totiter = 15896
traniter = 15020
tranpoints = 2891
accept = 2308
rejected = 612
matrix size = 176
fillins = 162
solver = Normal
Thread vector: 15.2/9.4[3] 10.2/5.8[3] 5.9/4.4[3] 0.8/2.5[1]  2592/500
Matrix Compiler1: 17.64 KB object code size  5.8/2.7/[1.3]
Matrix Compiler2: 18.31 KB object code size  3.3/3.5/[1.1]

